
     RDKit          3D

 13 12  0  0  0  0  0  0  0  0999 V2000
    1.4327    1.2748   -0.0000 C   0  0  0  0  0  0  0  0  0  0  0  0
   -0.0025    0.7503   -0.0000 C   0  0  0  0  0  0  0  0  0  0  0  0
    1.4600    2.3686    0.0000 H   0  0  0  0  0  0  0  0  0  0  0  0
    1.9781    0.9263    0.8844 H   0  0  0  0  0  0  0  0  0  0  0  0
    1.9781    0.9263   -0.8844 H   0  0  0  0  0  0  0  0  0  0  0  0
   -0.0563   -0.7797   -0.0000 C   0  0  0  0  0  0  0  0  0  0  0  0
   -0.5384    1.1296    0.8817 H   0  0  0  0  0  0  0  0  0  0  0  0
   -0.5384    1.1296   -0.8817 H   0  0  0  0  0  0  0  0  0  0  0  0
    0.4836   -1.1569   -0.8795 H   0  0  0  0  0  0  0  0  0  0  0  0
    0.4836   -1.1569    0.8795 H   0  0  0  0  0  0  0  0  0  0  0  0
   -1.3946   -1.3782   -0.0000 N   0  0  0  0  0  0  0  0  0  0  0  0
   -1.9145   -1.0556    0.8104 H   0  0  0  0  0  0  0  0  0  0  0  0
   -1.9145   -1.0556   -0.8104 H   0  0  0  0  0  0  0  0  0  0  0  0
  1  2  1  0
  1  3  1  0
  1  4  1  0
  1  5  1  0
  2  6  1  0
  2  7  1  0
  2  8  1  0
  6  9  1  0
  6 10  1  0
  6 11  1  0
 11 12  1  0
 11 13  1  0
M  END
>  <TORSION_ATOMS>  (1) 
1 2 6 11

>  <TORSION_ANGLE_SCAN>  (1) 
S 12 -30.0

>  <ANI2x_Ext Energy>  (1) 
-109455.56173857886

$$$$

     RDKit          3D

 13 12  0  0  0  0  0  0  0  0999 V2000
    1.4025    1.2957    0.1233 C   0  0  0  0  0  0  0  0  0  0  0  0
    0.0079    0.7434   -0.1718 C   0  0  0  0  0  0  0  0  0  0  0  0
    1.4179    2.3892    0.0821 H   0  0  0  0  0  0  0  0  0  0  0  0
    1.7331    0.9955    1.1235 H   0  0  0  0  0  0  0  0  0  0  0  0
    2.1412    0.9224   -0.5954 H   0  0  0  0  0  0  0  0  0  0  0  0
   -0.0430   -0.7927   -0.1019 C   0  0  0  0  0  0  0  0  0  0  0  0
   -0.6904    1.1445    0.5767 H   0  0  0  0  0  0  0  0  0  0  0  0
   -0.3518    1.0921   -1.1482 H   0  0  0  0  0  0  0  0  0  0  0  0
    0.2588   -1.2199   -1.0656 H   0  0  0  0  0  0  0  0  0  0  0  0
    0.7081   -1.1349    0.6214 H   0  0  0  0  0  0  0  0  0  0  0  0
   -1.3191   -1.3900    0.3073 N   0  0  0  0  0  0  0  0  0  0  0  0
   -1.5734   -1.0455    1.2281 H   0  0  0  0  0  0  0  0  0  0  0  0
   -2.0576   -1.0834   -0.3189 H   0  0  0  0  0  0  0  0  0  0  0  0
  1  2  1  0
  1  3  1  0
  1  4  1  0
  1  5  1  0
  2  6  1  0
  2  7  1  0
  2  8  1  0
  6  9  1  0
  6 10  1  0
  6 11  1  0
 11 12  1  0
 11 13  1  0
M  END
>  <TORSION_ATOMS>  (2) 
1 2 6 11

>  <TORSION_ANGLE_SCAN>  (2) 
S 12 -30.0

>  <ANI2x_Ext Energy>  (2) 
-109453.84258037165

$$$$

     RDKit          3D

 13 12  0  0  0  0  0  0  0  0999 V2000
    1.3269    1.3132    0.2600 C   0  0  0  0  0  0  0  0  0  0  0  0
    0.0330    0.7295   -0.3087 C   0  0  0  0  0  0  0  0  0  0  0  0
    1.3445    2.4046    0.1830 H   0  0  0  0  0  0  0  0  0  0  0  0
    1.4398    1.0516    1.3182 H   0  0  0  0  0  0  0  0  0  0  0  0
    2.2019    0.9247   -0.2726 H   0  0  0  0  0  0  0  0  0  0  0  0
   -0.0263   -0.8122   -0.1932 C   0  0  0  0  0  0  0  0  0  0  0  0
   -0.8234    1.1593    0.2279 H   0  0  0  0  0  0  0  0  0  0  0  0
   -0.0816    1.0310   -1.3573 H   0  0  0  0  0  0  0  0  0  0  0  0
   -0.0613   -1.2678   -1.1890 H   0  0  0  0  0  0  0  0  0  0  0  0
    0.9011   -1.1794    0.2615 H   0  0  0  0  0  0  0  0  0  0  0  0
   -1.1337   -1.3703    0.5911 N   0  0  0  0  0  0  0  0  0  0  0  0
   -1.1086   -0.9790    1.5287 H   0  0  0  0  0  0  0  0  0  0  0  0
   -2.0178   -1.0749    0.1891 H   0  0  0  0  0  0  0  0  0  0  0  0
  1  2  1  0
  1  3  1  0
  1  4  1  0
  1  5  1  0
  2  6  1  0
  2  7  1  0
  2  8  1  0
  6  9  1  0
  6 10  1  0
  6 11  1  0
 11 12  1  0
 11 13  1  0
M  END
>  <TORSION_ATOMS>  (3) 
1 2 6 11

>  <TORSION_ANGLE_SCAN>  (3) 
S 12 -30.0

>  <ANI2x_Ext Energy>  (3) 
-109451.85828533943

$$$$

     RDKit          3D

 13 12  0  0  0  0  0  0  0  0999 V2000
    1.2181    1.3235    0.3901 C   0  0  0  0  0  0  0  0  0  0  0  0
    0.0764    0.7062   -0.4206 C   0  0  0  0  0  0  0  0  0  0  0  0
    1.2489    2.4114    0.2721 H   0  0  0  0  0  0  0  0  0  0  0  0
    1.1220    1.1099    1.4612 H   0  0  0  0  0  0  0  0  0  0  0  0
    2.1840    0.9234    0.0615 H   0  0  0  0  0  0  0  0  0  0  0  0
   -0.0188   -0.8251   -0.2773 C   0  0  0  0  0  0  0  0  0  0  0  0
   -0.8841    1.1595   -0.1410 H   0  0  0  0  0  0  0  0  0  0  0  0
    0.2334    0.9462   -1.4820 H   0  0  0  0  0  0  0  0  0  0  0  0
   -0.4023   -1.2529   -1.2127 H   0  0  0  0  0  0  0  0  0  0  0  0
    0.9860   -1.2467   -0.1448 H   0  0  0  0  0  0  0  0  0  0  0  0
   -0.8654   -1.3383    0.8078 N   0  0  0  0  0  0  0  0  0  0  0  0
   -0.5675   -0.9516    1.6987 H   0  0  0  0  0  0  0  0  0  0  0  0
   -1.8196   -1.0217    0.6694 H   0  0  0  0  0  0  0  0  0  0  0  0
  1  2  1  0
  1  3  1  0
  1  4  1  0
  1  5  1  0
  2  6  1  0
  2  7  1  0
  2  8  1  0
  6  9  1  0
  6 10  1  0
  6 11  1  0
 11 12  1  0
 11 13  1  0
M  END
>  <TORSION_ATOMS>  (4) 
1 2 6 11

>  <TORSION_ANGLE_SCAN>  (4) 
S 12 -30.0

>  <ANI2x_Ext Energy>  (4) 
-109453.65119188515

$$$$

     RDKit          3D

 13 12  0  0  0  0  0  0  0  0999 V2000
    1.0684    1.3188    0.5030 C   0  0  0  0  0  0  0  0  0  0  0  0
    0.1247    0.6896   -0.5214 C   0  0  0  0  0  0  0  0  0  0  0  0
    1.2291    2.3816    0.2940 H   0  0  0  0  0  0  0  0  0  0  0  0
    0.6720    1.2422    1.5215 H   0  0  0  0  0  0  0  0  0  0  0  0
    2.0472    0.8240    0.4900 H   0  0  0  0  0  0  0  0  0  0  0  0
   -0.0213   -0.8311   -0.3660 C   0  0  0  0  0  0  0  0  0  0  0  0
   -0.8663    1.1610   -0.4551 H   0  0  0  0  0  0  0  0  0  0  0  0
    0.4948    0.8911   -1.5360 H   0  0  0  0  0  0  0  0  0  0  0  0
   -0.6735   -1.2142   -1.1624 H   0  0  0  0  0  0  0  0  0  0  0  0
    0.9600   -1.3016   -0.5199 H   0  0  0  0  0  0  0  0  0  0  0  0
   -0.5431   -1.3138    0.9171 N   0  0  0  0  0  0  0  0  0  0  0  0
    0.0801   -1.0456    1.6719 H   0  0  0  0  0  0  0  0  0  0  0  0
   -1.4360   -0.8719    1.1138 H   0  0  0  0  0  0  0  0  0  0  0  0
  1  2  1  0
  1  3  1  0
  1  4  1  0
  1  5  1  0
  2  6  1  0
  2  7  1  0
  2  8  1  0
  6  9  1  0
  6 10  1  0
  6 11  1  0
 11 12  1  0
 11 13  1  0
M  END
>  <TORSION_ATOMS>  (5) 
1 2 6 11

>  <TORSION_ANGLE_SCAN>  (5) 
S 12 -30.0

>  <ANI2x_Ext Energy>  (5) 
-109455.25248552952

$$$$

     RDKit          3D

 13 12  0  0  0  0  0  0  0  0999 V2000
    0.9511    1.3554    0.5799 C   0  0  0  0  0  0  0  0  0  0  0  0
    0.2303    0.6768   -0.5852 C   0  0  0  0  0  0  0  0  0  0  0  0
    1.1499    2.4084    0.3547 H   0  0  0  0  0  0  0  0  0  0  0  0
    0.3499    1.3238    1.4945 H   0  0  0  0  0  0  0  0  0  0  0  0
    1.9154    0.8784    0.7964 H   0  0  0  0  0  0  0  0  0  0  0  0
   -0.0464   -0.8398   -0.4039 C   0  0  0  0  0  0  0  0  0  0  0  0
   -0.7266    1.1945   -0.7421 H   0  0  0  0  0  0  0  0  0  0  0  0
    0.7994    0.8082   -1.5145 H   0  0  0  0  0  0  0  0  0  0  0  0
   -0.9131   -1.1210   -1.0153 H   0  0  0  0  0  0  0  0  0  0  0  0
    0.8045   -1.3975   -0.8155 H   0  0  0  0  0  0  0  0  0  0  0  0
   -0.2514   -1.3580    0.9517 N   0  0  0  0  0  0  0  0  0  0  0  0
    0.5705   -1.1798    1.5191 H   0  0  0  0  0  0  0  0  0  0  0  0
   -1.0235   -0.8766    1.4027 H   0  0  0  0  0  0  0  0  0  0  0  0
  1  2  1  0
  1  3  1  0
  1  4  1  0
  1  5  1  0
  2  6  1  0
  2  7  1  0
  2  8  1  0
  6  9  1  0
  6 10  1  0
  6 11  1  0
 11 12  1  0
 11 13  1  0
M  END
>  <TORSION_ATOMS>  (6) 
1 2 6 11

>  <TORSION_ANGLE_SCAN>  (6) 
S 12 -30.0

>  <ANI2x_Ext Energy>  (6) 
-109452.6553508742

$$$$

     RDKit          3D

 13 12  0  0  0  0  0  0  0  0999 V2000
    0.8202    1.4106    0.6315 C   0  0  0  0  0  0  0  0  0  0  0  0
    0.3421    0.6609   -0.6149 C   0  0  0  0  0  0  0  0  0  0  0  0
    1.0666    2.4487    0.3844 H   0  0  0  0  0  0  0  0  0  0  0  0
    0.0515    1.4316    1.4117 H   0  0  0  0  0  0  0  0  0  0  0  0
    1.7176    0.9521    1.0615 H   0  0  0  0  0  0  0  0  0  0  0  0
   -0.0624   -0.8397   -0.4220 C   0  0  0  0  0  0  0  0  0  0  0  0
   -0.5145    1.1978   -1.0428 H   0  0  0  0  0  0  0  0  0  0  0  0
    1.1271    0.7127   -1.3803 H   0  0  0  0  0  0  0  0  0  0  0  0
   -1.0976   -0.9730   -0.7603 H   0  0  0  0  0  0  0  0  0  0  0  0
    0.5417   -1.4594   -1.0966 H   0  0  0  0  0  0  0  0  0  0  0  0
    0.0300   -1.4493    0.9052 N   0  0  0  0  0  0  0  0  0  0  0  0
    0.9805   -1.4030    1.2565 H   0  0  0  0  0  0  0  0  0  0  0  0
   -0.5489   -0.9488    1.5713 H   0  0  0  0  0  0  0  0  0  0  0  0
  1  2  1  0
  1  3  1  0
  1  4  1  0
  1  5  1  0
  2  6  1  0
  2  7  1  0
  2  8  1  0
  6  9  1  0
  6 10  1  0
  6 11  1  0
 11 12  1  0
 11 13  1  0
M  END
>  <TORSION_ATOMS>  (7) 
1 2 6 11

>  <TORSION_ANGLE_SCAN>  (7) 
S 12 -30.0

>  <ANI2x_Ext Energy>  (7) 
-109450.31068295408

$$$$

     RDKit          3D

 13 12  0  0  0  0  0  0  0  0999 V2000
    0.6759    1.4312    0.6518 C   0  0  0  0  0  0  0  0  0  0  0  0
    0.4544    0.6297   -0.6315 C   0  0  0  0  0  0  0  0  0  0  0  0
    0.9954    2.4533    0.4219 H   0  0  0  0  0  0  0  0  0  0  0  0
   -0.2406    1.5002    1.2514 H   0  0  0  0  0  0  0  0  0  0  0  0
    1.4511    0.9789    1.2791 H   0  0  0  0  0  0  0  0  0  0  0  0
   -0.0754   -0.8158   -0.4315 C   0  0  0  0  0  0  0  0  0  0  0  0
   -0.2441    1.1574   -1.2938 H   0  0  0  0  0  0  0  0  0  0  0  0
    1.4091    0.5850   -1.1742 H   0  0  0  0  0  0  0  0  0  0  0  0
   -1.1724   -0.7861   -0.4510 H   0  0  0  0  0  0  0  0  0  0  0  0
    0.2236   -1.4288   -1.2913 H   0  0  0  0  0  0  0  0  0  0  0  0
    0.2876   -1.5333    0.7937 N   0  0  0  0  0  0  0  0  0  0  0  0
    1.2973   -1.5941    0.8848 H   0  0  0  0  0  0  0  0  0  0  0  0
   -0.0455   -1.0253    1.6061 H   0  0  0  0  0  0  0  0  0  0  0  0
  1  2  1  0
  1  3  1  0
  1  4  1  0
  1  5  1  0
  2  6  1  0
  2  7  1  0
  2  8  1  0
  6  9  1  0
  6 10  1  0
  6 11  1  0
 11 12  1  0
 11 13  1  0
M  END
>  <TORSION_ATOMS>  (8) 
1 2 6 11

>  <TORSION_ANGLE_SCAN>  (8) 
S 12 -30.0

>  <ANI2x_Ext Energy>  (8) 
-109452.65485529137

$$$$

     RDKit          3D

 13 12  0  0  0  0  0  0  0  0999 V2000
    0.5503    1.4651    0.6398 C   0  0  0  0  0  0  0  0  0  0  0  0
    0.5755    0.5909   -0.6136 C   0  0  0  0  0  0  0  0  0  0  0  0
    0.9324    2.4701    0.4326 H   0  0  0  0  0  0  0  0  0  0  0  0
   -0.4716    1.5695    1.0240 H   0  0  0  0  0  0  0  0  0  0  0  0
    1.1632    1.0419    1.4431 H   0  0  0  0  0  0  0  0  0  0  0  0
   -0.0925   -0.7780   -0.4174 C   0  0  0  0  0  0  0  0  0  0  0  0
    0.0549    1.1052   -1.4329 H   0  0  0  0  0  0  0  0  0  0  0  0
    1.6132    0.4488   -0.9483 H   0  0  0  0  0  0  0  0  0  0  0  0
   -1.1517   -0.6252   -0.1661 H   0  0  0  0  0  0  0  0  0  0  0  0
   -0.0792   -1.3254   -1.3695 H   0  0  0  0  0  0  0  0  0  0  0  0
    0.4815   -1.6476    0.6152 N   0  0  0  0  0  0  0  0  0  0  0  0
    1.4722   -1.7849    0.4389 H   0  0  0  0  0  0  0  0  0  0  0  0
    0.4126   -1.2027    1.5249 H   0  0  0  0  0  0  0  0  0  0  0  0
  1  2  1  0
  1  3  1  0
  1  4  1  0
  1  5  1  0
  2  6  1  0
  2  7  1  0
  2  8  1  0
  6  9  1  0
  6 10  1  0
  6 11  1  0
 11 12  1  0
 11 13  1  0
M  END
>  <TORSION_ATOMS>  (9) 
1 2 6 11

>  <TORSION_ANGLE_SCAN>  (9) 
S 12 -30.0

>  <ANI2x_Ext Energy>  (9) 
-109455.25074631422

$$$$

     RDKit          3D

 13 12  0  0  0  0  0  0  0  0999 V2000
    0.4246    1.5657    0.5986 C   0  0  0  0  0  0  0  0  0  0  0  0
    0.6713    0.5690   -0.5363 C   0  0  0  0  0  0  0  0  0  0  0  0
    0.9711    2.5004    0.4354 H   0  0  0  0  0  0  0  0  0  0  0  0
   -0.6416    1.8101    0.6709 H   0  0  0  0  0  0  0  0  0  0  0  0
    0.7359    1.1650    1.5706 H   0  0  0  0  0  0  0  0  0  0  0  0
   -0.0861   -0.7616   -0.3594 C   0  0  0  0  0  0  0  0  0  0  0  0
    0.3465    1.0291   -1.4804 H   0  0  0  0  0  0  0  0  0  0  0  0
    1.7456    0.3672   -0.6452 H   0  0  0  0  0  0  0  0  0  0  0  0
   -1.0423   -0.5769    0.1472 H   0  0  0  0  0  0  0  0  0  0  0  0
   -0.3436   -1.1653   -1.3475 H   0  0  0  0  0  0  0  0  0  0  0  0
    0.6093   -1.8286    0.3729 N   0  0  0  0  0  0  0  0  0  0  0  0
    1.4625   -2.0738   -0.1187 H   0  0  0  0  0  0  0  0  0  0  0  0
    0.8978   -1.4963    1.2883 H   0  0  0  0  0  0  0  0  0  0  0  0
  1  2  1  0
  1  3  1  0
  1  4  1  0
  1  5  1  0
  2  6  1  0
  2  7  1  0
  2  8  1  0
  6  9  1  0
  6 10  1  0
  6 11  1  0
 11 12  1  0
 11 13  1  0
M  END
>  <TORSION_ATOMS>  (10) 
1 2 6 11

>  <TORSION_ANGLE_SCAN>  (10) 
S 12 -30.0

>  <ANI2x_Ext Energy>  (10) 
-109453.65444590086

$$$$

     RDKit          3D

 13 12  0  0  0  0  0  0  0  0999 V2000
    0.3215    1.6462    0.5205 C   0  0  0  0  0  0  0  0  0  0  0  0
    0.7683    0.5455   -0.4431 C   0  0  0  0  0  0  0  0  0  0  0  0
    0.9186    2.5553    0.3974 H   0  0  0  0  0  0  0  0  0  0  0  0
   -0.7292    1.9105    0.3564 H   0  0  0  0  0  0  0  0  0  0  0  0
    0.4222    1.3196    1.5618 H   0  0  0  0  0  0  0  0  0  0  0  0
   -0.0717   -0.7471   -0.3041 C   0  0  0  0  0  0  0  0  0  0  0  0
    0.7171    0.9150   -1.4752 H   0  0  0  0  0  0  0  0  0  0  0  0
    1.8242    0.3084   -0.2554 H   0  0  0  0  0  0  0  0  0  0  0  0
   -0.8488   -0.5965    0.4543 H   0  0  0  0  0  0  0  0  0  0  0  0
   -0.6116   -0.9493   -1.2355 H   0  0  0  0  0  0  0  0  0  0  0  0
    0.6504   -1.9699    0.0634 N   0  0  0  0  0  0  0  0  0  0  0  0
    1.3605   -2.1702   -0.6335 H   0  0  0  0  0  0  0  0  0  0  0  0
    1.1477   -1.8177    0.9363 H   0  0  0  0  0  0  0  0  0  0  0  0
  1  2  1  0
  1  3  1  0
  1  4  1  0
  1  5  1  0
  2  6  1  0
  2  7  1  0
  2  8  1  0
  6  9  1  0
  6 10  1  0
  6 11  1  0
 11 12  1  0
 11 13  1  0
M  END
>  <TORSION_ATOMS>  (11) 
1 2 6 11

>  <TORSION_ANGLE_SCAN>  (11) 
S 12 -30.0

>  <ANI2x_Ext Energy>  (11) 
-109451.85752793921

$$$$

     RDKit          3D

 13 12  0  0  0  0  0  0  0  0999 V2000
    0.2487    1.7100    0.4175 C   0  0  0  0  0  0  0  0  0  0  0  0
    0.8415    0.5098   -0.3210 C   0  0  0  0  0  0  0  0  0  0  0  0
    0.8979    2.5874    0.3399 H   0  0  0  0  0  0  0  0  0  0  0  0
   -0.7331    1.9834    0.0138 H   0  0  0  0  0  0  0  0  0  0  0  0
    0.1184    1.4839    1.4814 H   0  0  0  0  0  0  0  0  0  0  0  0
   -0.0558   -0.7369   -0.2320 C   0  0  0  0  0  0  0  0  0  0  0  0
    1.0439    0.7582   -1.3705 H   0  0  0  0  0  0  0  0  0  0  0  0
    1.8138    0.2694    0.1327 H   0  0  0  0  0  0  0  0  0  0  0  0
   -0.6125   -0.6991    0.7132 H   0  0  0  0  0  0  0  0  0  0  0  0
   -0.8127   -0.7073   -1.0249 H   0  0  0  0  0  0  0  0  0  0  0  0
    0.6205   -2.0382   -0.2670 N   0  0  0  0  0  0  0  0  0  0  0  0
    1.1688   -2.1175   -1.1181 H   0  0  0  0  0  0  0  0  0  0  0  0
    1.2829   -2.0956    0.5002 H   0  0  0  0  0  0  0  0  0  0  0  0
  1  2  1  0
  1  3  1  0
  1  4  1  0
  1  5  1  0
  2  6  1  0
  2  7  1  0
  2  8  1  0
  6  9  1  0
  6 10  1  0
  6 11  1  0
 11 12  1  0
 11 13  1  0
M  END
>  <TORSION_ATOMS>  (12) 
1 2 6 11

>  <TORSION_ANGLE_SCAN>  (12) 
S 12 -30.0

>  <ANI2x_Ext Energy>  (12) 
-109453.84343127806

$$$$
